#!/sbin/sh
SKIPUNZIP=1
unzip -o "$ZIPFILE" 'module.prop' -d "$MODPATH" >&2
unzip -o "$ZIPFILE" 'service.sh' -d "$MODPATH" >&2
set_perm_recursive "$MODPATH" root root 0755 0644
set_perm "$MODPATH/service.sh" root root 0755